!-Generator IDFEditor 1.54
!-Option SortedOrder

!-NOTE: All comments with '!-' are ignored by the IDFEditor and are generated automatically.
!-      Use '!' comments if they need to be retained when using the IDFEditor.


!-   ===========  ALL OBJECTS IN CLASS: VERSION ===========

Version,
    24.1;                    !- Version Identifier


!-   ===========  ALL OBJECTS IN CLASS: SIMULATIONCONTROL ===========

SimulationControl,
    No,                      !- Do Zone Sizing Calculation
    No,                      !- Do System Sizing Calculation
    No,                      !- Do Plant Sizing Calculation
    No,                      !- Run Simulation for Sizing Periods
    Yes,                     !- Run Simulation for Weather File Run Periods
    ,                        !- Do HVAC Sizing Simulation for Sizing Periods
    ;                        !- Maximum Number of HVAC Sizing Simulation Passes


!-   ===========  ALL OBJECTS IN CLASS: BUILDING ===========

Building,
    NY_Office_2022_5Zone,    !- Name
    0,                       !- North Axis {deg}
    Suburbs,                 !- Terrain
    0.04,                    !- Loads Convergence Tolerance Value {W}
    0.004,                   !- Temperature Convergence Tolerance Value {deltaC}
    MinimalShadowing,        !- Solar Distribution
    25,                      !- Maximum Number of Warmup Days
    6;                       !- Minimum Number of Warmup Days


!-   ===========  ALL OBJECTS IN CLASS: TIMESTEP ===========

Timestep,
    4;                       !- Number of Timesteps per Hour


!-   ===========  ALL OBJECTS IN CLASS: RUNPERIOD ===========

RunPeriod,
    Annual,                  !- Name
    1,                       !- Begin Month
    1,                       !- Begin Day of Month
    ,                        !- Begin Year
    12,                      !- End Month
    31,                      !- End Day of Month
    ,                        !- End Year
    Tuesday,                 !- Day of Week for Start Day
    Yes,                     !- Use Weather File Holidays and Special Days
    Yes,                     !- Use Weather File Daylight Saving Period
    No,                      !- Apply Weekend Holiday Rule
    Yes,                     !- Use Weather File Rain Indicators
    Yes;                     !- Use Weather File Snow Indicators


!-   ===========  ALL OBJECTS IN CLASS: MATERIAL ===========

Material,
    M01 100mm Brick,         !- Name
    MediumRough,             !- Roughness
    0.1016,                  !- Thickness {m}
    0.89,                    !- Conductivity {W/m-K}
    1920,                    !- Density {kg/m3}
    790,                     !- Specific Heat {J/kg-K}
    0.9,                     !- Thermal Absorptance
    0.7,                     !- Solar Absorptance
    0.7;                     !- Visible Absorptance

Material,
    M11 200mm Concrete Block,!- Name
    MediumRough,             !- Roughness
    0.2032,                  !- Thickness {m}
    1.13,                    !- Conductivity {W/m-K}
    1400,                    !- Density {kg/m3}
    1000,                    !- Specific Heat {J/kg-K}
    0.9,                     !- Thermal Absorptance
    0.65,                    !- Solar Absorptance
    0.65;                    !- Visible Absorptance

Material,
    G01 16mm Gypsum Board,   !- Name
    Smooth,                  !- Roughness
    0.0159,                  !- Thickness {m}
    0.16,                    !- Conductivity {W/m-K}
    800,                     !- Density {kg/m3}
    1090,                    !- Specific Heat {J/kg-K}
    0.9,                     !- Thermal Absorptance
    0.7,                     !- Solar Absorptance
    0.7;                     !- Visible Absorptance

Material,
    I02 100mm Rigid Insulation,  !- Name
    Rough,                   !- Roughness
    0.10,                    !- Thickness {m}
    0.03,                    !- Conductivity {W/m-K}
    32,                      !- Density {kg/m3}
    1210,                    !- Specific Heat {J/kg-K}
    0.9,                     !- Thermal Absorptance
    0.7,                     !- Solar Absorptance
    0.7;                     !- Visible Absorptance

Material,
    I04 150mm Roof Insulation,  !- Name
    Rough,                   !- Roughness
    0.15,                    !- Thickness {m}
    0.03,                    !- Conductivity {W/m-K}
    32,                      !- Density {kg/m3}
    1210,                    !- Specific Heat {J/kg-K}
    0.9,                     !- Thermal Absorptance
    0.7,                     !- Solar Absorptance
    0.7;                     !- Visible Absorptance

Material,
    C12 150mm Concrete,      !- Name
    MediumRough,             !- Roughness
    0.15,                    !- Thickness {m}
    1.73,                    !- Conductivity {W/m-K}
    2240,                    !- Density {kg/m3}
    840,                     !- Specific Heat {J/kg-K}
    0.9,                     !- Thermal Absorptance
    0.65,                    !- Solar Absorptance
    0.65;                    !- Visible Absorptance

Material,
    Roof-Membrane,           !- Name
    VeryRough,               !- Roughness
    0.0015,                  !- Thickness {m}
    0.16,                    !- Conductivity {W/m-K}
    1121,                    !- Density {kg/m3}
    1460,                    !- Specific Heat {J/kg-K}
    0.9,                     !- Thermal Absorptance
    0.8,                     !- Solar Absorptance
    0.8;                     !- Visible Absorptance


!-   ===========  ALL OBJECTS IN CLASS: WINDOWMATERIAL:GLAZING ===========

WindowMaterial:Glazing,
    Glazing_LowE_6mm,        !- Name
    SpectralAverage,         !- Optical Data Type
    ,                        !- Window Glass Spectral Data Set Name
    0.006,                   !- Thickness {m}
    0.6,                     !- Solar Transmittance at Normal Incidence
    0.2,                     !- Front Side Solar Reflectance at Normal Incidence
    0.2,                     !- Back Side Solar Reflectance at Normal Incidence
    0.8,                     !- Visible Transmittance at Normal Incidence
    0.1,                     !- Front Side Visible Reflectance at Normal Incidence
    0.1,                     !- Back Side Visible Reflectance at Normal Incidence
    0,                       !- Infrared Transmittance at Normal Incidence
    0.1,                     !- Front Side Infrared Hemispherical Emissivity
    0.1,                     !- Back Side Infrared Hemispherical Emissivity
    0.9;                     !- Conductivity {W/m-K}


!-   ===========  ALL OBJECTS IN CLASS: WINDOWMATERIAL:GAS ===========

WindowMaterial:Gas,
    Gas_Argon_13mm,          !- Name
    Argon,                   !- Gas Type
    0.0127;                  !- Thickness {m}


!-   ===========  ALL OBJECTS IN CLASS: CONSTRUCTION ===========

Construction,
    Exterior_Wall,           !- Name
    M01 100mm Brick,         !- Outside Layer
    I02 100mm Rigid Insulation,  !- Layer 2
    M11 200mm Concrete Block,!- Layer 3
    G01 16mm Gypsum Board;   !- Layer 4

Construction,
    Exterior_Roof,           !- Name
    Roof-Membrane,           !- Outside Layer
    I04 150mm Roof Insulation,  !- Layer 2
    C12 150mm Concrete;      !- Layer 3

Construction,
    Interior_Wall,           !- Name
    G01 16mm Gypsum Board,   !- Outside Layer
    G01 16mm Gypsum Board;   !- Layer 2

Construction,
    Slab_On_Grade_Floor,     !- Name
    C12 150mm Concrete;      !- Outside Layer

Construction,
    Interior_Ceiling,        !- Name
    C12 150mm Concrete;      !- Outside Layer

Construction,
    Interior_Floor,          !- Name
    C12 150mm Concrete;      !- Outside Layer

Construction,
    Window_Double_Pane_LowE, !- Name
    Glazing_LowE_6mm,        !- Outside Layer
    Gas_Argon_13mm,          !- Layer 2
    Glazing_LowE_6mm;        !- Layer 3


!-   ===========  ALL OBJECTS IN CLASS: GLOBALGEOMETRYRULES ===========

GlobalGeometryRules,
    UpperLeftCorner,         !- Starting Vertex Position
    CounterClockWise,        !- Vertex Entry Direction
    World;                   !- Coordinate System


!-   ===========  ALL OBJECTS IN CLASS: ZONE ===========

Zone,
    Zone_Core,               !- Name
    0,                       !- Direction of Relative North {deg}
    5,                       !- X Origin {m}
    5,                       !- Y Origin {m}
    0,                       !- Z Origin {m}
    1,                       !- Type
    1,                       !- Multiplier
    autocalculate,           !- Ceiling Height {m}
    autocalculate;           !- Volume {m3}

Zone,
    Zone_Perim_N,            !- Name
    0,                       !- Direction of Relative North {deg}
    5,                       !- X Origin {m}
    14,                      !- Y Origin {m}
    0,                       !- Z Origin {m}
    1,                       !- Type
    1,                       !- Multiplier
    autocalculate,           !- Ceiling Height {m}
    autocalculate;           !- Volume {m3}

Zone,
    Zone_Perim_S,            !- Name
    0,                       !- Direction of Relative North {deg}
    5,                       !- X Origin {m}
    0,                       !- Y Origin {m}
    0,                       !- Z Origin {m}
    1,                       !- Type
    1,                       !- Multiplier
    autocalculate,           !- Ceiling Height {m}
    autocalculate;           !- Volume {m3}

Zone,
    Zone_Perim_E,            !- Name
    0,                       !- Direction of Relative North {deg}
    23,                      !- X Origin {m}
    5,                       !- Y Origin {m}
    0,                       !- Z Origin {m}
    1,                       !- Type
    1,                       !- Multiplier
    autocalculate,           !- Ceiling Height {m}
    autocalculate;           !- Volume {m3}

Zone,
    Zone_Perim_W,            !- Name
    0,                       !- Direction of Relative North {deg}
    0,                       !- X Origin {m}
    5,                       !- Y Origin {m}
    0,                       !- Z Origin {m}
    1,                       !- Type
    1,                       !- Multiplier
    autocalculate,           !- Ceiling Height {m}
    autocalculate;           !- Volume {m3}


!-   ===========  ALL OBJECTS IN CLASS: ZONELIST ===========

ZoneList,
    allzones,                !- Name
    Zone_Core,               !- Zone 1 Name
    Zone_Perim_N,            !- Zone 2 Name
    Zone_Perim_S,            !- Zone 3 Name
    Zone_Perim_E,            !- Zone 4 Name
    Zone_Perim_W;            !- Zone 5 Name


!-   ===========  ALL OBJECTS IN CLASS: BUILDINGSURFACE:DETAILED ===========

BuildingSurface:Detailed,
    Zone_Core_Wall_N,        !- Name
    Wall,                    !- Surface Type
    Interior_Wall,           !- Construction Name
    Zone_Core,               !- Zone Name
    ,                        !- Space Name
    Surface,                 !- Outside Boundary Condition
    Zone_Perim_N_Wall_S,     !- Outside Boundary Condition Object
    NoSun,                   !- Sun Exposure
    NoWind,                  !- Wind Exposure
    ,                        !- View Factor to Ground
    4,                       !- Number of Vertices
    5,                       !- Vertex 1 X-coordinate {m}
    14,                      !- Vertex 1 Y-coordinate {m}
    3,                       !- Vertex 1 Z-coordinate {m}
    5,                       !- Vertex 2 X-coordinate {m}
    14,                      !- Vertex 2 Y-coordinate {m}
    0,                       !- Vertex 2 Z-coordinate {m}
    23,                      !- Vertex 3 X-coordinate {m}
    14,                      !- Vertex 3 Y-coordinate {m}
    0,                       !- Vertex 3 Z-coordinate {m}
    23,                      !- Vertex 4 X-coordinate {m}
    14,                      !- Vertex 4 Y-coordinate {m}
    3;                       !- Vertex 4 Z-coordinate {m}

BuildingSurface:Detailed,
    Zone_Core_Wall_S,        !- Name
    Wall,                    !- Surface Type
    Interior_Wall,           !- Construction Name
    Zone_Core,               !- Zone Name
    ,                        !- Space Name
    Surface,                 !- Outside Boundary Condition
    Zone_Perim_S_Wall_N,     !- Outside Boundary Condition Object
    NoSun,                   !- Sun Exposure
    NoWind,                  !- Wind Exposure
    ,                        !- View Factor to Ground
    4,                       !- Number of Vertices
    23,                      !- Vertex 1 X-coordinate {m}
    5,                       !- Vertex 1 Y-coordinate {m}
    3,                       !- Vertex 1 Z-coordinate {m}
    23,                      !- Vertex 2 X-coordinate {m}
    5,                       !- Vertex 2 Y-coordinate {m}
    0,                       !- Vertex 2 Z-coordinate {m}
    5,                       !- Vertex 3 X-coordinate {m}
    5,                       !- Vertex 3 Y-coordinate {m}
    0,                       !- Vertex 3 Z-coordinate {m}
    5,                       !- Vertex 4 X-coordinate {m}
    5,                       !- Vertex 4 Y-coordinate {m}
    3;                       !- Vertex 4 Z-coordinate {m}

BuildingSurface:Detailed,
    Zone_Core_Wall_E,        !- Name
    Wall,                    !- Surface Type
    Interior_Wall,           !- Construction Name
    Zone_Core,               !- Zone Name
    ,                        !- Space Name
    Surface,                 !- Outside Boundary Condition
    Zone_Perim_E_Wall_W,     !- Outside Boundary Condition Object
    NoSun,                   !- Sun Exposure
    NoWind,                  !- Wind Exposure
    ,                        !- View Factor to Ground
    4,                       !- Number of Vertices
    23,                      !- Vertex 1 X-coordinate {m}
    14,                      !- Vertex 1 Y-coordinate {m}
    3,                       !- Vertex 1 Z-coordinate {m}
    23,                      !- Vertex 2 X-coordinate {m}
    14,                      !- Vertex 2 Y-coordinate {m}
    0,                       !- Vertex 2 Z-coordinate {m}
    23,                      !- Vertex 3 X-coordinate {m}
    5,                       !- Vertex 3 Y-coordinate {m}
    0,                       !- Vertex 3 Z-coordinate {m}
    23,                      !- Vertex 4 X-coordinate {m}
    5,                       !- Vertex 4 Y-coordinate {m}
    3;                       !- Vertex 4 Z-coordinate {m}

BuildingSurface:Detailed,
    Zone_Core_Wall_W,        !- Name
    Wall,                    !- Surface Type
    Interior_Wall,           !- Construction Name
    Zone_Core,               !- Zone Name
    ,                        !- Space Name
    Surface,                 !- Outside Boundary Condition
    Zone_Perim_W_Wall_E,     !- Outside Boundary Condition Object
    NoSun,                   !- Sun Exposure
    NoWind,                  !- Wind Exposure
    ,                        !- View Factor to Ground
    4,                       !- Number of Vertices
    5,                       !- Vertex 1 X-coordinate {m}
    5,                       !- Vertex 1 Y-coordinate {m}
    3,                       !- Vertex 1 Z-coordinate {m}
    5,                       !- Vertex 2 X-coordinate {m}
    5,                       !- Vertex 2 Y-coordinate {m}
    0,                       !- Vertex 2 Z-coordinate {m}
    5,                       !- Vertex 3 X-coordinate {m}
    14,                      !- Vertex 3 Y-coordinate {m}
    0,                       !- Vertex 3 Z-coordinate {m}
    5,                       !- Vertex 4 X-coordinate {m}
    14,                      !- Vertex 4 Y-coordinate {m}
    3;                       !- Vertex 4 Z-coordinate {m}

BuildingSurface:Detailed,
    Zone_Core_Floor,         !- Name
    Floor,                   !- Surface Type
    Slab_On_Grade_Floor,     !- Construction Name
    Zone_Core,               !- Zone Name
    ,                        !- Space Name
    Ground,                  !- Outside Boundary Condition
    ,                        !- Outside Boundary Condition Object
    NoSun,                   !- Sun Exposure
    NoWind,                  !- Wind Exposure
    0,                       !- View Factor to Ground
    4,                       !- Number of Vertices
    5,                       !- Vertex 1 X-coordinate {m}
    5,                       !- Vertex 1 Y-coordinate {m}
    0,                       !- Vertex 1 Z-coordinate {m}
    23,                      !- Vertex 2 X-coordinate {m}
    5,                       !- Vertex 2 Y-coordinate {m}
    0,                       !- Vertex 2 Z-coordinate {m}
    23,                      !- Vertex 3 X-coordinate {m}
    14,                      !- Vertex 3 Y-coordinate {m}
    0,                       !- Vertex 3 Z-coordinate {m}
    5,                       !- Vertex 4 X-coordinate {m}
    14,                      !- Vertex 4 Y-coordinate {m}
    0;                       !- Vertex 4 Z-coordinate {m}

BuildingSurface:Detailed,
    Zone_Core_Roof,          !- Name
    Roof,                    !- Surface Type
    Exterior_Roof,           !- Construction Name
    Zone_Core,               !- Zone Name
    ,                        !- Space Name
    Outdoors,                !- Outside Boundary Condition
    ,                        !- Outside Boundary Condition Object
    SunExposed,              !- Sun Exposure
    WindExposed,             !- Wind Exposure
    0,                       !- View Factor to Ground
    4,                       !- Number of Vertices
    5,                       !- Vertex 1 X-coordinate {m}
    14,                      !- Vertex 1 Y-coordinate {m}
    3,                       !- Vertex 1 Z-coordinate {m}
    23,                      !- Vertex 2 X-coordinate {m}
    14,                      !- Vertex 2 Y-coordinate {m}
    3,                       !- Vertex 2 Z-coordinate {m}
    23,                      !- Vertex 3 X-coordinate {m}
    5,                       !- Vertex 3 Y-coordinate {m}
    3,                       !- Vertex 3 Z-coordinate {m}
    5,                       !- Vertex 4 X-coordinate {m}
    5,                       !- Vertex 4 Y-coordinate {m}
    3;                       !- Vertex 4 Z-coordinate {m}

BuildingSurface:Detailed,
    Zone_Perim_N_Wall_N,     !- Name
    Wall,                    !- Surface Type
    Exterior_Wall,           !- Construction Name
    Zone_Perim_N,            !- Zone Name
    ,                        !- Space Name
    Outdoors,                !- Outside Boundary Condition
    ,                        !- Outside Boundary Condition Object
    SunExposed,              !- Sun Exposure
    WindExposed,             !- Wind Exposure
    0.5,                     !- View Factor to Ground
    4,                       !- Number of Vertices
    23,                      !- Vertex 1 X-coordinate {m}
    19,                      !- Vertex 1 Y-coordinate {m}
    3,                       !- Vertex 1 Z-coordinate {m}
    23,                      !- Vertex 2 X-coordinate {m}
    19,                      !- Vertex 2 Y-coordinate {m}
    0,                       !- Vertex 2 Z-coordinate {m}
    5,                       !- Vertex 3 X-coordinate {m}
    19,                      !- Vertex 3 Y-coordinate {m}
    0,                       !- Vertex 3 Z-coordinate {m}
    5,                       !- Vertex 4 X-coordinate {m}
    19,                      !- Vertex 4 Y-coordinate {m}
    3;                       !- Vertex 4 Z-coordinate {m}

BuildingSurface:Detailed,
    Zone_Perim_N_Wall_S,     !- Name
    Wall,                    !- Surface Type
    Interior_Wall,           !- Construction Name
    Zone_Perim_N,            !- Zone Name
    ,                        !- Space Name
    Surface,                 !- Outside Boundary Condition
    Zone_Core_Wall_N,        !- Outside Boundary Condition Object
    NoSun,                   !- Sun Exposure
    NoWind,                  !- Wind Exposure
    ,                        !- View Factor to Ground
    4,                       !- Number of Vertices
    5,                       !- Vertex 1 X-coordinate {m}
    14,                      !- Vertex 1 Y-coordinate {m}
    3,                       !- Vertex 1 Z-coordinate {m}
    5,                       !- Vertex 2 X-coordinate {m}
    14,                      !- Vertex 2 Y-coordinate {m}
    0,                       !- Vertex 2 Z-coordinate {m}
    23,                      !- Vertex 3 X-coordinate {m}
    14,                      !- Vertex 3 Y-coordinate {m}
    0,                       !- Vertex 3 Z-coordinate {m}
    23,                      !- Vertex 4 X-coordinate {m}
    14,                      !- Vertex 4 Y-coordinate {m}
    3;                       !- Vertex 4 Z-coordinate {m}

BuildingSurface:Detailed,
    Zone_Perim_N_Floor,      !- Name
    Floor,                   !- Surface Type
    Slab_On_Grade_Floor,     !- Construction Name
    Zone_Perim_N,            !- Zone Name
    ,                        !- Space Name
    Ground,                  !- Outside Boundary Condition
    ,                        !- Outside Boundary Condition Object
    NoSun,                   !- Sun Exposure
    NoWind,                  !- Wind Exposure
    0,                       !- View Factor to Ground
    4,                       !- Number of Vertices
    5,                       !- Vertex 1 X-coordinate {m}
    14,                      !- Vertex 1 Y-coordinate {m}
    0,                       !- Vertex 1 Z-coordinate {m}
    5,                       !- Vertex 2 X-coordinate {m}
    19,                      !- Vertex 2 Y-coordinate {m}
    0,                       !- Vertex 2 Z-coordinate {m}
    23,                      !- Vertex 3 X-coordinate {m}
    19,                      !- Vertex 3 Y-coordinate {m}
    0,                       !- Vertex 3 Z-coordinate {m}
    23,                      !- Vertex 4 X-coordinate {m}
    14,                      !- Vertex 4 Y-coordinate {m}
    0;                       !- Vertex 4 Z-coordinate {m}

BuildingSurface:Detailed,
    Zone_Perim_N_Roof,       !- Name
    Roof,                    !- Surface Type
    Exterior_Roof,           !- Construction Name
    Zone_Perim_N,            !- Zone Name
    ,                        !- Space Name
    Outdoors,                !- Outside Boundary Condition
    ,                        !- Outside Boundary Condition Object
    SunExposed,              !- Sun Exposure
    WindExposed,             !- Wind Exposure
    0,                       !- View Factor to Ground
    4,                       !- Number of Vertices
    5,                       !- Vertex 1 X-coordinate {m}
    19,                      !- Vertex 1 Y-coordinate {m}
    3,                       !- Vertex 1 Z-coordinate {m}
    5,                       !- Vertex 2 X-coordinate {m}
    14,                      !- Vertex 2 Y-coordinate {m}
    3,                       !- Vertex 2 Z-coordinate {m}
    23,                      !- Vertex 3 X-coordinate {m}
    14,                      !- Vertex 3 Y-coordinate {m}
    3,                       !- Vertex 3 Z-coordinate {m}
    23,                      !- Vertex 4 X-coordinate {m}
    19,                      !- Vertex 4 Y-coordinate {m}
    3;                       !- Vertex 4 Z-coordinate {m}

BuildingSurface:Detailed,
    Zone_Perim_S_Wall_S,     !- Name
    Wall,                    !- Surface Type
    Exterior_Wall,           !- Construction Name
    Zone_Perim_S,            !- Zone Name
    ,                        !- Space Name
    Outdoors,                !- Outside Boundary Condition
    ,                        !- Outside Boundary Condition Object
    SunExposed,              !- Sun Exposure
    WindExposed,             !- Wind Exposure
    0.5,                     !- View Factor to Ground
    4,                       !- Number of Vertices
    5,                       !- Vertex 1 X-coordinate {m}
    0,                       !- Vertex 1 Y-coordinate {m}
    3,                       !- Vertex 1 Z-coordinate {m}
    5,                       !- Vertex 2 X-coordinate {m}
    0,                       !- Vertex 2 Y-coordinate {m}
    0,                       !- Vertex 2 Z-coordinate {m}
    23,                      !- Vertex 3 X-coordinate {m}
    0,                       !- Vertex 3 Y-coordinate {m}
    0,                       !- Vertex 3 Z-coordinate {m}
    23,                      !- Vertex 4 X-coordinate {m}
    0,                       !- Vertex 4 Y-coordinate {m}
    3;                       !- Vertex 4 Z-coordinate {m}

BuildingSurface:Detailed,
    Zone_Perim_S_Wall_N,     !- Name
    Wall,                    !- Surface Type
    Interior_Wall,           !- Construction Name
    Zone_Perim_S,            !- Zone Name
    ,                        !- Space Name
    Surface,                 !- Outside Boundary Condition
    Zone_Core_Wall_S,        !- Outside Boundary Condition Object
    NoSun,                   !- Sun Exposure
    NoWind,                  !- Wind Exposure
    ,                        !- View Factor to Ground
    4,                       !- Number of Vertices
    23,                      !- Vertex 1 X-coordinate {m}
    5,                       !- Vertex 1 Y-coordinate {m}
    3,                       !- Vertex 1 Z-coordinate {m}
    23,                      !- Vertex 2 X-coordinate {m}
    5,                       !- Vertex 2 Y-coordinate {m}
    0,                       !- Vertex 2 Z-coordinate {m}
    5,                       !- Vertex 3 X-coordinate {m}
    5,                       !- Vertex 3 Y-coordinate {m}
    0,                       !- Vertex 3 Z-coordinate {m}
    5,                       !- Vertex 4 X-coordinate {m}
    5,                       !- Vertex 4 Y-coordinate {m}
    3;                       !- Vertex 4 Z-coordinate {m}

BuildingSurface:Detailed,
    Zone_Perim_S_Floor,      !- Name
    Floor,                   !- Surface Type
    Slab_On_Grade_Floor,     !- Construction Name
    Zone_Perim_S,            !- Zone Name
    ,                        !- Space Name
    Ground,                  !- Outside Boundary Condition
    ,                        !- Outside Boundary Condition Object
    NoSun,                   !- Sun Exposure
    NoWind,                  !- Wind Exposure
    0,                       !- View Factor to Ground
    4,                       !- Number of Vertices
    5,                       !- Vertex 1 X-coordinate {m}
    5,                       !- Vertex 1 Y-coordinate {m}
    0,                       !- Vertex 1 Z-coordinate {m}
    23,                      !- Vertex 2 X-coordinate {m}
    5,                       !- Vertex 2 Y-coordinate {m}
    0,                       !- Vertex 2 Z-coordinate {m}
    23,                      !- Vertex 3 X-coordinate {m}
    0,                       !- Vertex 3 Y-coordinate {m}
    0,                       !- Vertex 3 Z-coordinate {m}
    5,                       !- Vertex 4 X-coordinate {m}
    0,                       !- Vertex 4 Y-coordinate {m}
    0;                       !- Vertex 4 Z-coordinate {m}

BuildingSurface:Detailed,
    Zone_Perim_S_Roof,       !- Name
    Roof,                    !- Surface Type
    Exterior_Roof,           !- Construction Name
    Zone_Perim_S,            !- Zone Name
    ,                        !- Space Name
    Outdoors,                !- Outside Boundary Condition
    ,                        !- Outside Boundary Condition Object
    SunExposed,              !- Sun Exposure
    WindExposed,             !- Wind Exposure
    0,                       !- View Factor to Ground
    4,                       !- Number of Vertices
    5,                       !- Vertex 1 X-coordinate {m}
    0,                       !- Vertex 1 Y-coordinate {m}
    3,                       !- Vertex 1 Z-coordinate {m}
    23,                      !- Vertex 2 X-coordinate {m}
    0,                       !- Vertex 2 Y-coordinate {m}
    3,                       !- Vertex 2 Z-coordinate {m}
    23,                      !- Vertex 3 X-coordinate {m}
    5,                       !- Vertex 3 Y-coordinate {m}
    3,                       !- Vertex 3 Z-coordinate {m}
    5,                       !- Vertex 4 X-coordinate {m}
    5,                       !- Vertex 4 Y-coordinate {m}
    3;                       !- Vertex 4 Z-coordinate {m}

BuildingSurface:Detailed,
    Zone_Perim_E_Wall_E,     !- Name
    Wall,                    !- Surface Type
    Exterior_Wall,           !- Construction Name
    Zone_Perim_E,            !- Zone Name
    ,                        !- Space Name
    Outdoors,                !- Outside Boundary Condition
    ,                        !- Outside Boundary Condition Object
    SunExposed,              !- Sun Exposure
    WindExposed,             !- Wind Exposure
    0.5,                     !- View Factor to Ground
    4,                       !- Number of Vertices
    28,                      !- Vertex 1 X-coordinate {m}
    14,                      !- Vertex 1 Y-coordinate {m}
    3,                       !- Vertex 1 Z-coordinate {m}
    28,                      !- Vertex 2 X-coordinate {m}
    14,                      !- Vertex 2 Y-coordinate {m}
    0,                       !- Vertex 2 Z-coordinate {m}
    28,                      !- Vertex 3 X-coordinate {m}
    5,                       !- Vertex 3 Y-coordinate {m}
    0,                       !- Vertex 3 Z-coordinate {m}
    28,                      !- Vertex 4 X-coordinate {m}
    5,                       !- Vertex 4 Y-coordinate {m}
    3;                       !- Vertex 4 Z-coordinate {m}

BuildingSurface:Detailed,
    Zone_Perim_E_Wall_W,     !- Name
    Wall,                    !- Surface Type
    Interior_Wall,           !- Construction Name
    Zone_Perim_E,            !- Zone Name
    ,                        !- Space Name
    Surface,                 !- Outside Boundary Condition